1659080059.493158s 1 https://api.dandiarchive.org/api/zarr/885ae046-b160-40f0-b7e1-35d2feb7d513.zarr/0/0/0/0/10/47
1659080059.486602s 1 https://dandiarchive.s3.amazonaws.com/zarr/885ae046-b160-40f0-b7e1-35d2feb7d513/0/0/0/0/10/47?versionId=MT3D0mSnzyLAJEJY6UCvql1JcV0tsXOz
